Raman Spectrum: 1000002
Formula: F4 Li Y
Resolution: 2.5
Temperature: 22.85
Pressure: 100
1/CM	ARBITRARY UNITS
10.3909	67
13.1011	64
15.8083	57
18.5171	58
21.2228	44
23.9277	41
26.6342	58
29.3353	41
32.038	37
34.7399	38
37.4388	37
40.1392	42
42.8366	39
45.5332	45
48.229	35
50.9242	41
53.6162	41
56.3099	40
59.0005	37
61.6926	49
64.3817	39
67.07	42
69.7553	42
72.4422	40
75.1283	44
77.8113	48
80.4937	39
83.1752	48
85.8561	45
88.5362	43
91.2156	39
93.8919	46
96.5698	45
99.2446	45
101.919	48
104.592	39
107.265	43
109.937	41
112.605	40
115.276	48
117.943	46
120.61	40
123.276	39
125.941	43
128.606	46
131.267	42
133.93	46
136.59	41
139.249	48
141.908	48
144.566	47
147.223	54
149.877	48
152.532	59
155.185	59
157.837	45
160.488	55
163.138	43
165.788	47
168.435	55
171.083	45
173.728	57
176.372	56
179.016	53
181.659	51
184.302	53
186.943	54
189.582	54
192.22	52
194.859	55
197.496	78
200.131	72
202.764	64
205.398	64
208.03	62
210.662	62
213.292	76
215.921	80
218.55	78
221.175	74
223.802	82
226.426	68
229.052	84
231.674	86
234.296	101
236.915	103
239.535	109
242.155	133
244.772	166
247.388	198
250.003	253
252.618	332
255.232	479
257.845	780
260.455	1474
263.067	2946
265.676	4227
268.284	2990
270.891	1462
273.498	774
276.102	471
278.707	297
281.309	215
283.911	169
286.512	153
289.112	140
291.711	136
294.31	130
296.906	142
299.501	129
302.098	106
304.692	86
307.285	88
309.875	73
312.466	66
315.055	75
317.645	72
320.233	78
322.819	92
325.405	130
327.988	122
330.572	99
333.154	92
335.737	89
338.317	79
340.897	67
343.476	62
346.051	60
348.629	62
351.203	63
353.777	55
356.35	59
358.922	55
361.494	61
364.065	60
366.633	64
369.201	74
371.767	80
374.333	83
376.899	68
379.463	68
382.025	59
384.588	54
387.149	51
389.708	49
392.267	54
394.825	52
397.381	49
399.938	49
402.492	52
405.045	58
407.598	52
410.15	56
412.701	60
415.251	69
417.799	88
420.346	108
422.893	166
425.438	269
427.983	250
430.527	170
433.069	125
435.612	100
438.152	93
440.691	78
443.23	89
445.768	81
448.303	69
450.84	72
453.373	74
455.906	61
458.439	59
460.971	59
463.502	58
466.03	54
468.56	56
471.086	45
473.613	50
476.138	48
478.663	48
481.185	49
483.708	52
486.229	42
488.749	50
491.268	48
493.787	43
496.305	51
498.82	49
501.336	50
503.85	50
506.363	48
508.876	48
511.387	51
513.896	48
516.405	49
518.914	43
521.421	49
523.927	49
526.433	46
528.936	45
531.44	51
533.941	49
536.442	45
538.942	46
541.442	50
543.94	51
546.436	49
548.934	51
551.428	49
553.922	57
556.416	47
558.908	50
561.398	51
563.889	51
566.378	50
568.866	42
571.353	49
573.839	53
576.325	56
578.81	45
581.293	48
583.774	48
586.255	52
588.736	47
591.216	48
593.693	48
596.171	48
598.647	50
601.122	47
603.596	50
606.07	46
608.543	55
611.013	48
613.485	48
615.954	52
618.422	50
620.889	45
623.354	45
625.821	42
628.284	46
630.747	42
633.209	47
635.671	49
638.132	48
640.59	38
643.05	49
645.507	49
647.963	50
650.418	46
652.873	41
655.325	55
657.779	41
660.23	47
662.68	41
665.13	43
667.579	49
